
#======================================================================
# CRYSTAL DATA
#----------------------------------------------------------------------
data_VESTA_phase_1

_chemical_name_common                  '3-C4-CO2-OH                           '
_cell_length_a                         17.237200
_cell_length_b                         17.237200
_cell_length_c                         25.025000
_cell_angle_alpha                      90.000000
_cell_angle_beta                       90.000000
_cell_angle_gamma                      120.000000
_cell_volume                           6439.292332
_space_group_name_H-M_alt              'P 1'
_space_group_IT_number                 1

loop_
_space_group_symop_operation_xyz
   'x, y, z'

loop_
   _atom_site_label
   _atom_site_occupancy
   _atom_site_fract_x
   _atom_site_fract_y
   _atom_site_fract_z
   _atom_site_adp_type
   _atom_site_U_iso_or_equiv
   _atom_site_type_symbol
   C1         1.0     0.000461     0.998623     0.194631    Uiso  ? C
   C2         1.0     0.095463     0.046365     0.198293    Uiso  ? C
   C3         1.0     0.144233     0.001573     0.194327    Uiso  ? C
   C4         1.0     0.240648     0.050596     0.195818    Uiso  ? C
   C5         1.0     0.287262     0.002945     0.195498    Uiso  ? C
   C6         1.0     0.383067     0.051141     0.195287    Uiso  ? C
   C7         1.0     0.429701     0.002083     0.196844    Uiso  ? C
   C8         1.0     0.524551     0.048368     0.194787    Uiso  ? C
   C9         1.0     0.571521     0.999494     0.195095    Uiso  ? C
   C10        1.0     0.666537     0.045760     0.193719    Uiso  ? C
   C11        1.0     0.713009     0.996591     0.195954    Uiso  ? C
   C12        1.0     0.808450     0.044726     0.195760    Uiso  ? C
   C13        1.0     0.856457     0.996296     0.195890    Uiso  ? C
   C14        1.0     0.951498     0.045137     0.196122    Uiso  ? C
   C15        1.0     0.999751     0.141394     0.197417    Uiso  ? C
   C16        1.0     0.094057     0.190003     0.201802    Uiso  ? C
   C17        1.0     0.143810     0.142571     0.215889    Uiso  ? C
   C18        1.0     0.241632     0.193746     0.200971    Uiso  ? C
   C19        1.0     0.288825     0.147374     0.196649    Uiso  ? C
   C20        1.0     0.384924     0.197197     0.194190    Uiso  ? C
   C21        1.0     0.430814     0.146832     0.193568    Uiso  ? C
   C22        1.0     0.525959     0.193333     0.193069    Uiso  ? C
   C23        1.0     0.572361     0.144076     0.193120    Uiso  ? C
   C24        1.0     0.667401     0.190090     0.192539    Uiso  ? C
   C25        1.0     0.714334     0.141339     0.192556    Uiso  ? C
   C26        1.0     0.809116     0.188426     0.193314    Uiso  ? C
   C27        1.0     0.856024     0.139876     0.194350    Uiso  ? C
   C28        1.0     0.951758     0.188441     0.195307    Uiso  ? C
   C29        1.0     0.999165     0.283848     0.195668    Uiso  ? C
   C30        1.0     0.093982     0.331822     0.198066    Uiso  ? C
   C31        1.0     0.141260     0.284099     0.200676    Uiso  ? C
   C32        1.0     0.237054     0.333234     0.201534    Uiso  ? C
   C33        1.0     0.287513     0.288290     0.199472    Uiso  ? C
   C34        1.0     0.383759     0.340805     0.195752    Uiso  ? C
   C35        1.0     0.433740     0.294276     0.194192    Uiso  ? C
   C36        1.0     0.529883     0.341030     0.194166    Uiso  ? C
   C37        1.0     0.574903     0.289383     0.194673    Uiso  ? C
   C38        1.0     0.668508     0.332779     0.198215    Uiso  ? C
   C39        1.0     0.715125     0.285188     0.194669    Uiso  ? C
   C40        1.0     0.810564     0.332281     0.194791    Uiso  ? C
   C41        1.0     0.856915     0.284224     0.193715    Uiso  ? C
   C42        1.0     0.952124     0.331971     0.194193    Uiso  ? C
   C43        1.0     0.999827     0.427166     0.193937    Uiso  ? C
   C44        1.0     0.094522     0.475116     0.197069    Uiso  ? C
   C45        1.0     0.141319     0.427380     0.199492    Uiso  ? C
   C46        1.0     0.235674     0.475501     0.202822    Uiso  ? C
   C47        1.0     0.282700     0.427344     0.201761    Uiso  ? C
   C48        1.0     0.376982     0.475070     0.199193    Uiso  ? C
   C49        1.0     0.670802     0.475940     0.196232    Uiso  ? C
   C50        1.0     0.717939     0.428785     0.214227    Uiso  ? C
   C51        1.0     0.813680     0.476738     0.197521    Uiso  ? C
   C52        1.0     0.858805     0.428145     0.194372    Uiso  ? C
   C53        1.0     0.953535     0.475650     0.192562    Uiso  ? C
   C54        1.0     0.001681     0.571366     0.192359    Uiso  ? C
   C55        1.0     0.095929     0.619316     0.196008    Uiso  ? C
   C56        1.0     0.142371     0.570548     0.199505    Uiso  ? C
   C57        1.0     0.235641     0.616661     0.206381    Uiso  ? C
   C58        1.0     0.282951     0.570276     0.206291    Uiso  ? C
   C59        1.0     0.379097     0.618276     0.206087    Uiso  ? C
   C60        1.0     0.424844     0.571095     0.199922    Uiso  ? C
   C61        1.0     0.718739     0.570882     0.192170    Uiso  ? C
   C62        1.0     0.812455     0.618498     0.191801    Uiso  ? C
   C63        1.0     0.859875     0.570399     0.192546    Uiso  ? C
   C64        1.0     0.954383     0.619036     0.190163    Uiso  ? C
   C65        1.0     0.001492     0.714720     0.188928    Uiso  ? C
   C66        1.0     0.096574     0.763079     0.191123    Uiso  ? C
   C67        1.0     0.143742     0.715363     0.196015    Uiso  ? C
   C68        1.0     0.237199     0.763921     0.203036    Uiso  ? C
   C69        1.0     0.282630     0.713687     0.215967    Uiso  ? C
   C70        1.0     0.383547     0.764139     0.216855    Uiso  ? C
   C71        1.0     0.429672     0.713033     0.207453    Uiso  ? C
   C72        1.0     0.522069     0.757274     0.201742    Uiso  ? C
   C73        1.0     0.567216     0.705420     0.196859    Uiso  ? C
   C74        1.0     0.661817     0.750986     0.195643    Uiso  ? C
   C75        1.0     0.711407     0.705746     0.191897    Uiso  ? C
   C76        1.0     0.808299     0.757651     0.191153    Uiso  ? C
   C77        1.0     0.858213     0.713279     0.189791    Uiso  ? C
   C78        1.0     0.954000     0.762009     0.188488    Uiso  ? C
   C79        1.0     0.001277     0.857273     0.188978    Uiso  ? C
   C80        1.0     0.096675     0.906009     0.190455    Uiso  ? C
   C81        1.0     0.144358     0.858506     0.191883    Uiso  ? C
   C82        1.0     0.239454     0.906721     0.195740    Uiso  ? C
   C83        1.0     0.285868     0.858313     0.201017    Uiso  ? C
   C84        1.0     0.382486     0.906534     0.201689    Uiso  ? C
   C85        1.0     0.430162     0.860108     0.204347    Uiso  ? C
   C86        1.0     0.523887     0.904208     0.198810    Uiso  ? C
   C87        1.0     0.571148     0.854746     0.200006    Uiso  ? C
   C88        1.0     0.664160     0.900905     0.199631    Uiso  ? C
   C89        1.0     0.711792     0.849467     0.212033    Uiso  ? C
   C90        1.0     0.809350     0.900940     0.196537    Uiso  ? C
   C91        1.0     0.856064     0.854205     0.191798    Uiso  ? C
   C92        1.0     0.952292     0.903317     0.190431    Uiso  ? C
   C93        1.0     0.549316     0.529827     0.320438    Uiso  ? C
   N1         1.0     0.426344     0.433610     0.195372    Uiso  ? N
   N2         1.0     0.580493     0.433654     0.192353    Uiso  ? N
   N3         1.0     0.516137     0.612462     0.194996    Uiso  ? N
   N4         1.0     0.668848     0.612817     0.190241    Uiso  ? N
   O1         1.0     0.332283     0.740210     0.266682    Uiso  ? O
   O2         1.0     0.711854     0.842952     0.271936    Uiso  ? O
   O3         1.0     0.147411     0.141234     0.275950    Uiso  ? O
   O4         1.0     0.600925     0.503894     0.320933    Uiso  ? O
   O5         1.0     0.497732     0.555481     0.321731    Uiso  ? O
   O6         1.0     0.722311     0.430885     0.274147    Uiso  ? O
   H1         1.0     0.740984     0.904078     0.285961    Uiso  ? H
   H2         1.0     0.085395     0.107298     0.288341    Uiso  ? H
   H3         1.0     0.676894     0.444182     0.287439    Uiso  ? H
   Co1        1.0     0.548101     0.523749     0.190913    Uiso  ? Co
