
#======================================================================
# CRYSTAL DATA
#----------------------------------------------------------------------
data_VESTA_phase_1

_chemical_name_common                  '2-C4-CO2-O                            '
_cell_length_a                         17.237200
_cell_length_b                         17.237200
_cell_length_c                         25.025000
_cell_angle_alpha                      90.000000
_cell_angle_beta                       90.000000
_cell_angle_gamma                      120.000000
_cell_volume                           6439.292332
_space_group_name_H-M_alt              'P 1'
_space_group_IT_number                 1

loop_
_space_group_symop_operation_xyz
   'x, y, z'

loop_
   _atom_site_label
   _atom_site_occupancy
   _atom_site_fract_x
   _atom_site_fract_y
   _atom_site_fract_z
   _atom_site_adp_type
   _atom_site_U_iso_or_equiv
   _atom_site_type_symbol
   C1         1.0     0.000074     0.998246     0.196116    Uiso  ? C
   C2         1.0     0.095124     0.046144     0.198636    Uiso  ? C
   C3         1.0     0.143604     0.001233     0.194018    Uiso  ? C
   C4         1.0     0.240022     0.050147     0.194266    Uiso  ? C
   C5         1.0     0.286525     0.002411     0.192926    Uiso  ? C
   C6         1.0     0.382357     0.050614     0.192633    Uiso  ? C
   C7         1.0     0.429209     0.001945     0.193911    Uiso  ? C
   C8         1.0     0.524518     0.048642     0.193469    Uiso  ? C
   C9         1.0     0.571534     0.999455     0.193553    Uiso  ? C
   C10        1.0     0.666435     0.045395     0.193451    Uiso  ? C
   C11        1.0     0.712848     0.996246     0.196182    Uiso  ? C
   C12        1.0     0.808288     0.044345     0.196692    Uiso  ? C
   C13        1.0     0.856082     0.995823     0.197555    Uiso  ? C
   C14        1.0     0.951144     0.044728     0.197336    Uiso  ? C
   C15        1.0     0.999593     0.140888     0.197278    Uiso  ? C
   C16        1.0     0.093913     0.189673     0.200620    Uiso  ? C
   C17        1.0     0.143838     0.142736     0.215255    Uiso  ? C
   C18        1.0     0.241519     0.193521     0.199811    Uiso  ? C
   C19        1.0     0.288146     0.146804     0.195193    Uiso  ? C
   C20        1.0     0.384426     0.196826     0.193187    Uiso  ? C
   C21        1.0     0.429938     0.146323     0.192288    Uiso  ? C
   C22        1.0     0.525033     0.192958     0.194349    Uiso  ? C
   C23        1.0     0.572058     0.143752     0.194410    Uiso  ? C
   C24        1.0     0.667627     0.189551     0.195345    Uiso  ? C
   C25        1.0     0.714437     0.140838     0.193611    Uiso  ? C
   C26        1.0     0.809160     0.188102     0.194649    Uiso  ? C
   C27        1.0     0.856079     0.139369     0.195027    Uiso  ? C
   C28        1.0     0.951588     0.188026     0.195200    Uiso  ? C
   C29        1.0     0.998972     0.283411     0.195029    Uiso  ? C
   C30        1.0     0.093838     0.331523     0.196041    Uiso  ? C
   C31        1.0     0.141113     0.283797     0.198396    Uiso  ? C
   C32        1.0     0.236811     0.333040     0.199112    Uiso  ? C
   C33        1.0     0.287385     0.288217     0.197983    Uiso  ? C
   C34        1.0     0.383594     0.340557     0.195359    Uiso  ? C
   C35        1.0     0.432923     0.293615     0.194601    Uiso  ? C
   C36        1.0     0.529537     0.340036     0.197579    Uiso  ? C
   C37        1.0     0.571634     0.287617     0.199338    Uiso  ? C
   C38        1.0     0.666900     0.330056     0.211793    Uiso  ? C
   C39        1.0     0.716108     0.283181     0.200850    Uiso  ? C
   C40        1.0     0.809913     0.331370     0.199842    Uiso  ? C
   C41        1.0     0.857029     0.283515     0.196066    Uiso  ? C
   C42        1.0     0.951849     0.331483     0.195294    Uiso  ? C
   C43        1.0     0.999509     0.426854     0.195582    Uiso  ? C
   C44        1.0     0.094233     0.474864     0.196258    Uiso  ? C
   C45        1.0     0.141137     0.427129     0.197056    Uiso  ? C
   C46        1.0     0.235492     0.475350     0.199443    Uiso  ? C
   C47        1.0     0.282418     0.427196     0.198869    Uiso  ? C
   C48        1.0     0.376661     0.474867     0.197508    Uiso  ? C
   C49        1.0     0.670062     0.476735     0.200699    Uiso  ? C
   C50        1.0     0.718931     0.430960     0.213026    Uiso  ? C
   C51        1.0     0.814502     0.477215     0.202348    Uiso  ? C
   C52        1.0     0.858769     0.427968     0.200396    Uiso  ? C
   C53        1.0     0.953310     0.475373     0.196624    Uiso  ? C
   C54        1.0     0.001288     0.571122     0.195099    Uiso  ? C
   C55        1.0     0.095660     0.619119     0.196157    Uiso  ? C
   C56        1.0     0.142062     0.570370     0.198236    Uiso  ? C
   C57        1.0     0.235603     0.616650     0.203355    Uiso  ? C
   C58        1.0     0.282692     0.570191     0.202670    Uiso  ? C
   C59        1.0     0.378707     0.618208     0.202848    Uiso  ? C
   C60        1.0     0.424522     0.570935     0.198240    Uiso  ? C
   C61        1.0     0.718241     0.571165     0.195900    Uiso  ? C
   C62        1.0     0.811992     0.618171     0.195391    Uiso  ? C
   C63        1.0     0.860022     0.570693     0.196365    Uiso  ? C
   C64        1.0     0.954323     0.619032     0.193398    Uiso  ? C
   C65        1.0     0.001037     0.714480     0.191038    Uiso  ? C
   C66        1.0     0.096074     0.762810     0.191218    Uiso  ? C
   C67        1.0     0.143323     0.715060     0.194919    Uiso  ? C
   C68        1.0     0.237088     0.763781     0.199892    Uiso  ? C
   C69        1.0     0.282716     0.713767     0.212628    Uiso  ? C
   C70        1.0     0.383191     0.764111     0.213153    Uiso  ? C
   C71        1.0     0.429256     0.712930     0.204303    Uiso  ? C
   C72        1.0     0.521761     0.757198     0.200059    Uiso  ? C
   C73        1.0     0.566925     0.705243     0.197193    Uiso  ? C
   C74        1.0     0.661524     0.750919     0.197686    Uiso  ? C
   C75        1.0     0.710856     0.705568     0.195122    Uiso  ? C
   C76        1.0     0.807726     0.757250     0.194548    Uiso  ? C
   C77        1.0     0.857865     0.713069     0.193114    Uiso  ? C
   C78        1.0     0.953406     0.761566     0.191061    Uiso  ? C
   C79        1.0     0.000638     0.856819     0.190822    Uiso  ? C
   C80        1.0     0.096023     0.905617     0.190741    Uiso  ? C
   C81        1.0     0.143773     0.858210     0.191049    Uiso  ? C
   C82        1.0     0.238977     0.906411     0.193137    Uiso  ? C
   C83        1.0     0.285530     0.858033     0.197354    Uiso  ? C
   C84        1.0     0.382122     0.906319     0.197730    Uiso  ? C
   C85        1.0     0.429843     0.859991     0.200534    Uiso  ? C
   C86        1.0     0.523776     0.904187     0.196115    Uiso  ? C
   C87        1.0     0.570872     0.854645     0.198422    Uiso  ? C
   C88        1.0     0.663875     0.900730     0.199733    Uiso  ? C
   C89        1.0     0.710986     0.849424     0.213751    Uiso  ? C
   C90        1.0     0.808799     0.900586     0.198963    Uiso  ? C
   C91        1.0     0.855498     0.853788     0.194793    Uiso  ? C
   C92        1.0     0.951735     0.902817     0.192784    Uiso  ? C
   C93        1.0     0.554463     0.540549     0.324276    Uiso  ? C
   N1         1.0     0.426240     0.433498     0.195309    Uiso  ? N
   N2         1.0     0.580029     0.434223     0.197792    Uiso  ? N
   N3         1.0     0.515947     0.612378     0.195405    Uiso  ? N
   N4         1.0     0.668096     0.612663     0.193739    Uiso  ? N
   O1         1.0     0.690719     0.378965     0.262556    Uiso  ? O
   O2         1.0     0.332678     0.740866     0.263381    Uiso  ? O
   O3         1.0     0.708638     0.843571     0.273707    Uiso  ? O
   O4         1.0     0.149530     0.144177     0.275311    Uiso  ? O
   O5         1.0     0.623326     0.541725     0.324882    Uiso  ? O
   O6         1.0     0.485500     0.539214     0.324824    Uiso  ? O
   H1         1.0     0.740843     0.904892     0.287459    Uiso  ? H
   H2         1.0     0.087949     0.110014     0.288385    Uiso  ? H
   Co1        1.0     0.547557     0.523298     0.193840    Uiso  ? Co
