
#======================================================================
# CRYSTAL DATA
#----------------------------------------------------------------------
data_VESTA_phase_1

_chemical_name_common                  '5-C4-COOHr-OH                         '
_cell_length_a                         17.237200
_cell_length_b                         17.237200
_cell_length_c                         25.025000
_cell_angle_alpha                      90.000000
_cell_angle_beta                       90.000000
_cell_angle_gamma                      120.000000
_cell_volume                           6439.292332
_space_group_name_H-M_alt              'P 1'
_space_group_IT_number                 1

loop_
_space_group_symop_operation_xyz
   'x, y, z'

loop_
   _atom_site_label
   _atom_site_occupancy
   _atom_site_fract_x
   _atom_site_fract_y
   _atom_site_fract_z
   _atom_site_adp_type
   _atom_site_U_iso_or_equiv
   _atom_site_type_symbol
   C1         1.0     0.000668     0.998618     0.198565    Uiso  ? C
   C2         1.0     0.095781     0.046513     0.201346    Uiso  ? C
   C3         1.0     0.144443     0.001648     0.197052    Uiso  ? C
   C4         1.0     0.240920     0.050620     0.197654    Uiso  ? C
   C5         1.0     0.287479     0.002922     0.196221    Uiso  ? C
   C6         1.0     0.383333     0.051101     0.195636    Uiso  ? C
   C7         1.0     0.429988     0.002022     0.196205    Uiso  ? C
   C8         1.0     0.524873     0.048326     0.194689    Uiso  ? C
   C9         1.0     0.571892     0.999514     0.195116    Uiso  ? C
   C10        1.0     0.666924     0.045767     0.194593    Uiso  ? C
   C11        1.0     0.713369     0.996684     0.197860    Uiso  ? C
   C12        1.0     0.808811     0.044816     0.198010    Uiso  ? C
   C13        1.0     0.856734     0.996319     0.199447    Uiso  ? C
   C14        1.0     0.951768     0.045199     0.199273    Uiso  ? C
   C15        1.0     0.000079     0.141455     0.198534    Uiso  ? C
   C16        1.0     0.094520     0.190238     0.201992    Uiso  ? C
   C17        1.0     0.144402     0.143464     0.217381    Uiso  ? C
   C18        1.0     0.242058     0.193880     0.202157    Uiso  ? C
   C19        1.0     0.289199     0.147375     0.198543    Uiso  ? C
   C20        1.0     0.385314     0.197129     0.196508    Uiso  ? C
   C21        1.0     0.431149     0.146781     0.195040    Uiso  ? C
   C22        1.0     0.526343     0.193290     0.194536    Uiso  ? C
   C23        1.0     0.572723     0.144041     0.193828    Uiso  ? C
   C24        1.0     0.667763     0.190002     0.193290    Uiso  ? C
   C25        1.0     0.714727     0.141297     0.193197    Uiso  ? C
   C26        1.0     0.809477     0.188364     0.193545    Uiso  ? C
   C27        1.0     0.856372     0.139837     0.195195    Uiso  ? C
   C28        1.0     0.952132     0.188424     0.195309    Uiso  ? C
   C29        1.0     0.999545     0.283797     0.193768    Uiso  ? C
   C30        1.0     0.094394     0.331785     0.194976    Uiso  ? C
   C31        1.0     0.141702     0.284189     0.198718    Uiso  ? C
   C32        1.0     0.237473     0.333360     0.199523    Uiso  ? C
   C33        1.0     0.287875     0.288295     0.199662    Uiso  ? C
   C34        1.0     0.384220     0.340655     0.197636    Uiso  ? C
   C35        1.0     0.434208     0.294175     0.197622    Uiso  ? C
   C36        1.0     0.530330     0.340905     0.198562    Uiso  ? C
   C37        1.0     0.575382     0.289227     0.197211    Uiso  ? C
   C38        1.0     0.668981     0.332492     0.200175    Uiso  ? C
   C39        1.0     0.715529     0.285013     0.195678    Uiso  ? C
   C40        1.0     0.810981     0.332168     0.194963    Uiso  ? C
   C41        1.0     0.857275     0.284152     0.193131    Uiso  ? C
   C42        1.0     0.952492     0.331913     0.192295    Uiso  ? C
   C43        1.0     0.000117     0.427077     0.191311    Uiso  ? C
   C44        1.0     0.094909     0.475060     0.192980    Uiso  ? C
   C45        1.0     0.141749     0.427342     0.195022    Uiso  ? C
   C46        1.0     0.236131     0.475493     0.197952    Uiso  ? C
   C47        1.0     0.283108     0.427384     0.198257    Uiso  ? C
   C48        1.0     0.377489     0.475025     0.197521    Uiso  ? C
   C49        1.0     0.671310     0.475723     0.200310    Uiso  ? C
   C50        1.0     0.718770     0.428182     0.216728    Uiso  ? C
   C51        1.0     0.814166     0.476526     0.199487    Uiso  ? C
   C52        1.0     0.859196     0.428066     0.194709    Uiso  ? C
   C53        1.0     0.953775     0.475588     0.191383    Uiso  ? C
   C54        1.0     0.001824     0.571332     0.191368    Uiso  ? C
   C55        1.0     0.096187     0.619332     0.193448    Uiso  ? C
   C56        1.0     0.142724     0.570525     0.195339    Uiso  ? C
   C57        1.0     0.235999     0.616618     0.201675    Uiso  ? C
   C58        1.0     0.283309     0.570264     0.201316    Uiso  ? C
   C59        1.0     0.379267     0.618266     0.202453    Uiso  ? C
   C60        1.0     0.425435     0.571135     0.198408    Uiso  ? C
   C61        1.0     0.718917     0.570553     0.197810    Uiso  ? C
   C62        1.0     0.812825     0.618377     0.196354    Uiso  ? C
   C63        1.0     0.860141     0.570308     0.195126    Uiso  ? C
   C64        1.0     0.954542     0.619029     0.191335    Uiso  ? C
   C65        1.0     0.001521     0.714702     0.190835    Uiso  ? C
   C66        1.0     0.096606     0.763134     0.191463    Uiso  ? C
   C67        1.0     0.143862     0.715312     0.194106    Uiso  ? C
   C68        1.0     0.237467     0.763841     0.200185    Uiso  ? C
   C69        1.0     0.282804     0.713316     0.212228    Uiso  ? C
   C70        1.0     0.383342     0.763714     0.213952    Uiso  ? C
   C71        1.0     0.429759     0.712894     0.204924    Uiso  ? C
   C72        1.0     0.522441     0.757450     0.201795    Uiso  ? C
   C73        1.0     0.567729     0.705531     0.199738    Uiso  ? C
   C74        1.0     0.662222     0.750957     0.201323    Uiso  ? C
   C75        1.0     0.711746     0.705599     0.199022    Uiso  ? C
   C76        1.0     0.808560     0.757586     0.197417    Uiso  ? C
   C77        1.0     0.858369     0.713114     0.195084    Uiso  ? C
   C78        1.0     0.954076     0.761957     0.192526    Uiso  ? C
   C79        1.0     0.001307     0.857181     0.193201    Uiso  ? C
   C80        1.0     0.096746     0.906038     0.193336    Uiso  ? C
   C81        1.0     0.144422     0.858550     0.192986    Uiso  ? C
   C82        1.0     0.239644     0.906756     0.195641    Uiso  ? C
   C83        1.0     0.286105     0.858195     0.199183    Uiso  ? C
   C84        1.0     0.382720     0.906380     0.199913    Uiso  ? C
   C85        1.0     0.430351     0.859945     0.202374    Uiso  ? C
   C86        1.0     0.524238     0.904215     0.198163    Uiso  ? C
   C87        1.0     0.571540     0.854869     0.200565    Uiso  ? C
   C88        1.0     0.664490     0.901066     0.201908    Uiso  ? C
   C89        1.0     0.711835     0.850093     0.216358    Uiso  ? C
   C90        1.0     0.809583     0.901048     0.201289    Uiso  ? C
   C91        1.0     0.856197     0.854121     0.197355    Uiso  ? C
   C92        1.0     0.952385     0.903226     0.195341    Uiso  ? C
   C93        1.0     0.539168     0.518577     0.278221    Uiso  ? C
   N1         1.0     0.426376     0.433152     0.196857    Uiso  ? N
   N2         1.0     0.580988     0.433313     0.198422    Uiso  ? N
   N3         1.0     0.516670     0.613052     0.197143    Uiso  ? N
   N4         1.0     0.669563     0.612866     0.198049    Uiso  ? N
   O1         1.0     0.331173     0.738344     0.263496    Uiso  ? O
   O2         1.0     0.710660     0.846160     0.276293    Uiso  ? O
   O3         1.0     0.148989     0.145374     0.277453    Uiso  ? O
   O4         1.0     0.604507     0.508444     0.303728    Uiso  ? O
   O5         1.0     0.482049     0.524415     0.303327    Uiso  ? O
   O6         1.0     0.722450     0.428575     0.276623    Uiso  ? O
   H1         1.0     0.741924     0.908026     0.289156    Uiso  ? H
   H2         1.0     0.087273     0.111444     0.290338    Uiso  ? H
   H3         1.0     0.592837     0.509186     0.342126    Uiso  ? H
   H4         1.0     0.680625     0.447683     0.289031    Uiso  ? H
   Co1        1.0     0.548406     0.523342     0.203297    Uiso  ? Co
