
#======================================================================
# CRYSTAL DATA
#----------------------------------------------------------------------
data_VESTA_phase_1

_chemical_name_common                  '6-C4-CO-O_H2O                         '
_cell_length_a                         17.237200
_cell_length_b                         17.237200
_cell_length_c                         25.025000
_cell_angle_alpha                      90.000000
_cell_angle_beta                       90.000000
_cell_angle_gamma                      120.000000
_cell_volume                           6439.292332
_space_group_name_H-M_alt              'P 1'
_space_group_IT_number                 1

loop_
_space_group_symop_operation_xyz
   'x, y, z'

loop_
   _atom_site_label
   _atom_site_occupancy
   _atom_site_fract_x
   _atom_site_fract_y
   _atom_site_fract_z
   _atom_site_adp_type
   _atom_site_U_iso_or_equiv
   _atom_site_type_symbol
   C1         1.0     0.000122     0.998250     0.198021    Uiso  ? C
   C2         1.0     0.095165     0.046171     0.200771    Uiso  ? C
   C3         1.0     0.143723     0.001307     0.196385    Uiso  ? C
   C4         1.0     0.240157     0.050181     0.197384    Uiso  ? C
   C5         1.0     0.286686     0.002402     0.196025    Uiso  ? C
   C6         1.0     0.382382     0.050421     0.196268    Uiso  ? C
   C7         1.0     0.429209     0.001735     0.197147    Uiso  ? C
   C8         1.0     0.524545     0.048377     0.196334    Uiso  ? C
   C9         1.0     0.571525     0.999186     0.196101    Uiso  ? C
   C10        1.0     0.666424     0.045064     0.195205    Uiso  ? C
   C11        1.0     0.712959     0.996034     0.198230    Uiso  ? C
   C12        1.0     0.808365     0.044269     0.198018    Uiso  ? C
   C13        1.0     0.856097     0.995781     0.199398    Uiso  ? C
   C14        1.0     0.951149     0.044741     0.198776    Uiso  ? C
   C15        1.0     0.999599     0.140852     0.197626    Uiso  ? C
   C16        1.0     0.093913     0.189695     0.201067    Uiso  ? C
   C17        1.0     0.143586     0.143006     0.216966    Uiso  ? C
   C18        1.0     0.241588     0.193602     0.202237    Uiso  ? C
   C19        1.0     0.288307     0.146722     0.198813    Uiso  ? C
   C20        1.0     0.384521     0.196554     0.197758    Uiso  ? C
   C21        1.0     0.430015     0.146214     0.196431    Uiso  ? C
   C22        1.0     0.525162     0.192816     0.197547    Uiso  ? C
   C23        1.0     0.572154     0.143466     0.196663    Uiso  ? C
   C24        1.0     0.667650     0.189179     0.195633    Uiso  ? C
   C25        1.0     0.714424     0.140462     0.193887    Uiso  ? C
   C26        1.0     0.809225     0.187870     0.193454    Uiso  ? C
   C27        1.0     0.856157     0.139251     0.194753    Uiso  ? C
   C28        1.0     0.951585     0.187923     0.194274    Uiso  ? C
   C29        1.0     0.999034     0.283268     0.192416    Uiso  ? C
   C30        1.0     0.093972     0.331399     0.193440    Uiso  ? C
   C31        1.0     0.141207     0.283789     0.197502    Uiso  ? C
   C32        1.0     0.236864     0.333088     0.198786    Uiso  ? C
   C33        1.0     0.287424     0.288177     0.199910    Uiso  ? C
   C34        1.0     0.383786     0.340417     0.199301    Uiso  ? C
   C35        1.0     0.433082     0.293549     0.199785    Uiso  ? C
   C36        1.0     0.529583     0.339775     0.202155    Uiso  ? C
   C37        1.0     0.571913     0.287423     0.201936    Uiso  ? C
   C38        1.0     0.668317     0.330701     0.210940    Uiso  ? C
   C39        1.0     0.716482     0.283118     0.198961    Uiso  ? C
   C40        1.0     0.810072     0.331295     0.195810    Uiso  ? C
   C41        1.0     0.857153     0.283329     0.192726    Uiso  ? C
   C42        1.0     0.951956     0.331328     0.191311    Uiso  ? C
   C43        1.0     0.999729     0.426853     0.190549    Uiso  ? C
   C44        1.0     0.094380     0.474773     0.191641    Uiso  ? C
   C45        1.0     0.141295     0.427023     0.193345    Uiso  ? C
   C46        1.0     0.235681     0.475309     0.196255    Uiso  ? C
   C47        1.0     0.282529     0.427123     0.197201    Uiso  ? C
   C48        1.0     0.377094     0.475038     0.197615    Uiso  ? C
   C49        1.0     0.670349     0.476802     0.200740    Uiso  ? C
   C50        1.0     0.720101     0.430852     0.210109    Uiso  ? C
   C51        1.0     0.814855     0.477216     0.197305    Uiso  ? C
   C52        1.0     0.859015     0.428022     0.194873    Uiso  ? C
   C53        1.0     0.953549     0.475378     0.190965    Uiso  ? C
   C54        1.0     0.001465     0.571205     0.190104    Uiso  ? C
   C55        1.0     0.095783     0.619118     0.192163    Uiso  ? C
   C56        1.0     0.142149     0.570342     0.194089    Uiso  ? C
   C57        1.0     0.235379     0.616519     0.200523    Uiso  ? C
   C58        1.0     0.282761     0.570263     0.199914    Uiso  ? C
   C59        1.0     0.378400     0.618427     0.201738    Uiso  ? C
   C60        1.0     0.424692     0.570788     0.198571    Uiso  ? C
   C61        1.0     0.718115     0.571084     0.196637    Uiso  ? C
   C62        1.0     0.812608     0.618525     0.193931    Uiso  ? C
   C63        1.0     0.860212     0.571039     0.192341    Uiso  ? C
   C64        1.0     0.954652     0.619275     0.189356    Uiso  ? C
   C65        1.0     0.001315     0.714663     0.189002    Uiso  ? C
   C66        1.0     0.096373     0.763057     0.189985    Uiso  ? C
   C67        1.0     0.143477     0.715122     0.192845    Uiso  ? C
   C68        1.0     0.236937     0.763560     0.199427    Uiso  ? C
   C69        1.0     0.281971     0.712945     0.211673    Uiso  ? C
   C70        1.0     0.382532     0.763361     0.213928    Uiso  ? C
   C71        1.0     0.428820     0.712516     0.204908    Uiso  ? C
   C72        1.0     0.521854     0.757307     0.202382    Uiso  ? C
   C73        1.0     0.567074     0.705412     0.201332    Uiso  ? C
   C74        1.0     0.661708     0.750711     0.202936    Uiso  ? C
   C75        1.0     0.711577     0.705734     0.199632    Uiso  ? C
   C76        1.0     0.808082     0.757395     0.196942    Uiso  ? C
   C77        1.0     0.858140     0.713009     0.193384    Uiso  ? C
   C78        1.0     0.953622     0.761657     0.190768    Uiso  ? C
   C79        1.0     0.000802     0.856949     0.191956    Uiso  ? C
   C80        1.0     0.096192     0.905780     0.192235    Uiso  ? C
   C81        1.0     0.143973     0.858357     0.191827    Uiso  ? C
   C82        1.0     0.239077     0.906408     0.195003    Uiso  ? C
   C83        1.0     0.285513     0.857907     0.198793    Uiso  ? C
   C84        1.0     0.382065     0.906119     0.200228    Uiso  ? C
   C85        1.0     0.429787     0.859702     0.202789    Uiso  ? C
   C86        1.0     0.523745     0.903903     0.198763    Uiso  ? C
   C87        1.0     0.570951     0.854406     0.201139    Uiso  ? C
   C88        1.0     0.664134     0.900616     0.202644    Uiso  ? C
   C89        1.0     0.711552     0.850002     0.217496    Uiso  ? C
   C90        1.0     0.808814     0.900545     0.201615    Uiso  ? C
   C91        1.0     0.855486     0.853712     0.197095    Uiso  ? C
   C92        1.0     0.951813     0.902854     0.194630    Uiso  ? C
   C93        1.0     0.540585     0.526964     0.282381    Uiso  ? C
   N1         1.0     0.426373     0.433311     0.199028    Uiso  ? N
   N2         1.0     0.580340     0.433835     0.202286    Uiso  ? N
   N3         1.0     0.515855     0.612774     0.199598    Uiso  ? N
   N4         1.0     0.668852     0.612968     0.198436    Uiso  ? N
   O1         1.0     0.329705     0.737524     0.263249    Uiso  ? O
   O2         1.0     0.710126     0.845971     0.277479    Uiso  ? O
   O3         1.0     0.148444     0.145365     0.277078    Uiso  ? O
   O4         1.0     0.697420     0.381536     0.261491    Uiso  ? O
   O5         1.0     0.525471     0.531310     0.327118    Uiso  ? O
   O6         1.0     0.696061     0.517452     0.324587    Uiso  ? O
   H1         1.0     0.745272     0.907626     0.290331    Uiso  ? H
   H2         1.0     0.086912     0.109882     0.290020    Uiso  ? H
   H3         1.0     0.687068     0.458803     0.314202    Uiso  ? H
   H4         1.0     0.664319     0.507581     0.358229    Uiso  ? H
   Co1        1.0     0.547818     0.523628     0.212250    Uiso  ? Co
