
#======================================================================
# CRYSTAL DATA
#----------------------------------------------------------------------
data_VESTA_phase_1

_chemical_name_common                  'Co-NGO-c4                             '
_cell_length_a                         17.237200
_cell_length_b                         17.237200
_cell_length_c                         25.025000
_cell_angle_alpha                      90.000000
_cell_angle_beta                       90.000000
_cell_angle_gamma                      120.000000
_cell_volume                           6439.292332
_space_group_name_H-M_alt              'P 1'
_space_group_IT_number                 1

loop_
_space_group_symop_operation_xyz
   'x, y, z'

loop_
   _atom_site_label
   _atom_site_occupancy
   _atom_site_fract_x
   _atom_site_fract_y
   _atom_site_fract_z
   _atom_site_adp_type
   _atom_site_U_iso_or_equiv
   _atom_site_type_symbol
   C1         1.0     0.000257     0.998703     0.197495    Uiso  ? C
   C2         1.0     0.095264     0.046617     0.200408    Uiso  ? C
   C3         1.0     0.143795     0.001660     0.196394    Uiso  ? C
   C4         1.0     0.240196     0.050525     0.197057    Uiso  ? C
   C5         1.0     0.286665     0.002746     0.196417    Uiso  ? C
   C6         1.0     0.382465     0.050941     0.196510    Uiso  ? C
   C7         1.0     0.429270     0.002251     0.198094    Uiso  ? C
   C8         1.0     0.524561     0.048964     0.197679    Uiso  ? C
   C9         1.0     0.571567     0.999786     0.197411    Uiso  ? C
   C10        1.0     0.666446     0.045733     0.196830    Uiso  ? C
   C11        1.0     0.712902     0.996588     0.198670    Uiso  ? C
   C12        1.0     0.808337     0.044668     0.198553    Uiso  ? C
   C13        1.0     0.856184     0.996187     0.198752    Uiso  ? C
   C14        1.0     0.951235     0.045107     0.198503    Uiso  ? C
   C15        1.0     0.999602     0.141233     0.198223    Uiso  ? C
   C16        1.0     0.093970     0.190061     0.201255    Uiso  ? C
   C17        1.0     0.143916     0.143437     0.216513    Uiso  ? C
   C18        1.0     0.241580     0.193917     0.201019    Uiso  ? C
   C19        1.0     0.288286     0.147156     0.197374    Uiso  ? C
   C20        1.0     0.384562     0.197161     0.195590    Uiso  ? C
   C21        1.0     0.430038     0.146626     0.195693    Uiso  ? C
   C22        1.0     0.525104     0.193306     0.197807    Uiso  ? C
   C23        1.0     0.572093     0.144079     0.198318    Uiso  ? C
   C24        1.0     0.667650     0.189890     0.198693    Uiso  ? C
   C25        1.0     0.714416     0.141155     0.196795    Uiso  ? C
   C26        1.0     0.809136     0.188415     0.196889    Uiso  ? C
   C27        1.0     0.856052     0.139681     0.196806    Uiso  ? C
   C28        1.0     0.951555     0.188324     0.196168    Uiso  ? C
   C29        1.0     0.998923     0.283700     0.195350    Uiso  ? C
   C30        1.0     0.093816     0.331779     0.195601    Uiso  ? C
   C31        1.0     0.141134     0.284096     0.198181    Uiso  ? C
   C32        1.0     0.236848     0.333342     0.198610    Uiso  ? C
   C33        1.0     0.287433     0.288523     0.198299    Uiso  ? C
   C34        1.0     0.383702     0.340855     0.195879    Uiso  ? C
   C35        1.0     0.433088     0.293974     0.196176    Uiso  ? C
   C36        1.0     0.529704     0.340468     0.199309    Uiso  ? C
   C37        1.0     0.571762     0.288077     0.201903    Uiso  ? C
   C38        1.0     0.667233     0.330846     0.213903    Uiso  ? C
   C39        1.0     0.716233     0.283641     0.203248    Uiso  ? C
   C40        1.0     0.809991     0.331791     0.201292    Uiso  ? C
   C41        1.0     0.857021     0.283844     0.197523    Uiso  ? C
   C42        1.0     0.951803     0.331776     0.195801    Uiso  ? C
   C43        1.0     0.999502     0.427141     0.195545    Uiso  ? C
   C44        1.0     0.094242     0.475114     0.195677    Uiso  ? C
   C45        1.0     0.141143     0.427379     0.196159    Uiso  ? C
   C46        1.0     0.235528     0.475593     0.198298    Uiso  ? C
   C47        1.0     0.282464     0.427474     0.197879    Uiso  ? C
   C48        1.0     0.376743     0.475153     0.196825    Uiso  ? C
   C49        1.0     0.670299     0.477242     0.201501    Uiso  ? C
   C50        1.0     0.719301     0.431658     0.213992    Uiso  ? C
   C51        1.0     0.814691     0.477699     0.202826    Uiso  ? C
   C52        1.0     0.858891     0.428397     0.200980    Uiso  ? C
   C53        1.0     0.953377     0.475723     0.196780    Uiso  ? C
   C54        1.0     0.001415     0.571486     0.195332    Uiso  ? C
   C55        1.0     0.095763     0.619421     0.196529    Uiso  ? C
   C56        1.0     0.142102     0.570599     0.197959    Uiso  ? C
   C57        1.0     0.235622     0.616775     0.203158    Uiso  ? C
   C58        1.0     0.282717     0.570364     0.201903    Uiso  ? C
   C59        1.0     0.378730     0.618396     0.202478    Uiso  ? C
   C60        1.0     0.424641     0.571241     0.197744    Uiso  ? C
   C61        1.0     0.718445     0.571615     0.196426    Uiso  ? C
   C62        1.0     0.812217     0.618654     0.195874    Uiso  ? C
   C63        1.0     0.860220     0.571149     0.196758    Uiso  ? C
   C64        1.0     0.954523     0.619476     0.193910    Uiso  ? C
   C65        1.0     0.001287     0.714947     0.192146    Uiso  ? C
   C66        1.0     0.096305     0.763237     0.193013    Uiso  ? C
   C67        1.0     0.143469     0.715371     0.196340    Uiso  ? C
   C68        1.0     0.237140     0.763961     0.201957    Uiso  ? C
   C69        1.0     0.282617     0.713503     0.213767    Uiso  ? C
   C70        1.0     0.383062     0.763827     0.214892    Uiso  ? C
   C71        1.0     0.429287     0.713058     0.205055    Uiso  ? C
   C72        1.0     0.521853     0.757442     0.201183    Uiso  ? C
   C73        1.0     0.567075     0.705595     0.197657    Uiso  ? C
   C74        1.0     0.661684     0.751317     0.198175    Uiso  ? C
   C75        1.0     0.711041     0.706027     0.195571    Uiso  ? C
   C76        1.0     0.807929     0.757704     0.195124    Uiso  ? C
   C77        1.0     0.858125     0.713558     0.193793    Uiso  ? C
   C78        1.0     0.953671     0.762055     0.192191    Uiso  ? C
   C79        1.0     0.000907     0.857291     0.192406    Uiso  ? C
   C80        1.0     0.096286     0.906065     0.193048    Uiso  ? C
   C81        1.0     0.144003     0.858621     0.193639    Uiso  ? C
   C82        1.0     0.239141     0.906761     0.196446    Uiso  ? C
   C83        1.0     0.285592     0.858276     0.200552    Uiso  ? C
   C84        1.0     0.382173     0.906575     0.201462    Uiso  ? C
   C85        1.0     0.429884     0.860193     0.203705    Uiso  ? C
   C86        1.0     0.523824     0.904493     0.199377    Uiso  ? C
   C87        1.0     0.570950     0.854931     0.200609    Uiso  ? C
   C88        1.0     0.663955     0.901034     0.201643    Uiso  ? C
   C89        1.0     0.711234     0.849582     0.214694    Uiso  ? C
   C90        1.0     0.808946     0.900965     0.199758    Uiso  ? C
   C91        1.0     0.855716     0.854237     0.195534    Uiso  ? C
   C92        1.0     0.951976     0.903288     0.194011    Uiso  ? C
   N1         1.0     0.426278     0.433724     0.195269    Uiso  ? N
   N2         1.0     0.580232     0.434648     0.198825    Uiso  ? N
   N3         1.0     0.516136     0.612780     0.195492    Uiso  ? N
   N4         1.0     0.668219     0.613086     0.194308    Uiso  ? N
   O1         1.0     0.691998     0.381187     0.264190    Uiso  ? O
   O2         1.0     0.331752     0.738355     0.264860    Uiso  ? O
   O3         1.0     0.709501     0.843023     0.274596    Uiso  ? O
   O4         1.0     0.149927     0.146217     0.276580    Uiso  ? O
   H1         1.0     0.742112     0.904233     0.288450    Uiso  ? H
   H2         1.0     0.088486     0.112932     0.289950    Uiso  ? H
   Co1        1.0     0.547836     0.523805     0.194776    Uiso  ? Co
